Version 4
SHEET 1 3332 5604
WIRE 176 -144 -560 -144
WIRE 384 -144 176 -144
WIRE -160 -96 -336 -96
WIRE -144 -96 -160 -96
WIRE -560 -80 -560 -144
WIRE -208 -80 -224 -80
WIRE 176 -80 176 -144
WIRE -336 -48 -336 -96
WIRE -144 -48 -144 -96
WIRE -144 -48 -160 -48
WIRE -224 0 -224 -80
WIRE -224 0 -272 0
WIRE -112 0 -160 0
WIRE 0 0 -32 0
WIRE 128 0 64 0
WIRE -272 16 -272 0
WIRE -160 16 -160 0
WIRE -144 64 -160 64
WIRE -224 96 -224 0
WIRE -208 96 -224 96
WIRE -336 112 -336 32
WIRE -272 112 -272 96
WIRE -272 112 -336 112
WIRE -160 112 -272 112
WIRE -144 112 -144 64
WIRE -144 112 -160 112
WIRE 176 112 176 16
WIRE 176 112 -144 112
WIRE 176 144 176 112
WIRE 176 256 176 224
WIRE 240 256 176 256
WIRE 384 256 384 -144
WIRE 384 256 320 256
WIRE 176 320 176 256
WIRE 176 320 128 320
WIRE -224 336 -400 336
WIRE -208 336 -224 336
WIRE -400 352 -400 336
WIRE -272 352 -288 352
WIRE 176 352 176 320
WIRE -208 384 -208 336
WIRE -208 384 -224 384
WIRE -288 432 -288 352
WIRE -288 432 -336 432
WIRE -176 432 -224 432
WIRE -64 432 -96 432
WIRE 64 432 0 432
WIRE 128 432 64 432
WIRE -336 448 -336 432
WIRE -224 448 -224 432
WIRE -208 496 -224 496
WIRE -288 528 -288 432
WIRE -272 528 -288 528
WIRE -400 544 -400 432
WIRE -336 544 -336 528
WIRE -336 544 -400 544
WIRE -224 544 -336 544
WIRE -208 544 -208 496
WIRE -208 544 -224 544
WIRE 176 544 176 448
WIRE 176 544 -208 544
WIRE -560 656 -560 0
WIRE 176 656 176 544
WIRE 176 656 -560 656
WIRE 176 688 176 656
FLAG 176 688 0
FLAG 64 432 gs
FLAG 128 320 Vsw
SYMBOL voltage -336 432 R0
WINDOW 0 -42 93 Left 2
WINDOW 3 -201 198 Left 2
WINDOW 123 0 0 Left 2
WINDOW 39 24 132 Left 2
SYMATTR InstName V2
SYMATTR Value PULSE(0 12 950n 10n 10n 1100n 2u)
SYMBOL voltage -560 -96 R0
WINDOW 123 0 0 Left 2
WINDOW 39 0 0 Left 2
SYMATTR InstName V3
SYMATTR Value 400
SYMBOL ind 336 240 R90
WINDOW 0 5 56 VBottom 2
WINDOW 3 32 56 VTop 2
SYMATTR InstName L1
SYMATTR Value 100µ
SYMATTR SpiceLine Rser=.1
SYMBOL voltage -336 -64 R0
WINDOW 0 -45 14 Left 2
WINDOW 3 -48 87 Left 2
WINDOW 123 0 0 Left 2
WINDOW 39 0 0 Left 2
SYMATTR InstName V4
SYMATTR Value 12
SYMBOL pmos4 -208 0 M180
WINDOW 3 57 68 Left 2
SYMATTR Value pmod
SYMATTR InstName M3
SYMATTR Value2 l=100u w=100u
SYMBOL nmos4 -208 16 R0
WINDOW 3 56 60 Left 2
SYMATTR Value nmod
SYMATTR InstName M4
SYMATTR Value2 l=100u w=2500u
SYMBOL ind 160 128 R0
SYMATTR InstName L2
SYMATTR Value 10nH
SYMATTR SpiceLine Rser=.05
SYMBOL res -16 -16 R90
WINDOW 0 0 56 VBottom 2
WINDOW 3 32 56 VTop 2
SYMATTR InstName R1
SYMATTR Value 1
SYMBOL voltage -272 0 R0
WINDOW 0 -42 93 Left 2
WINDOW 3 -201 198 Left 2
WINDOW 123 0 0 Left 2
WINDOW 39 24 132 Left 2
SYMATTR InstName V1
SYMATTR Value PULSE(12 0 1000n 10n 10n 1000n 2u)
SYMBOL voltage -400 336 R0
WINDOW 0 -45 14 Left 2
WINDOW 3 -48 87 Left 2
WINDOW 123 0 0 Left 2
WINDOW 39 0 0 Left 2
SYMATTR InstName V5
SYMATTR Value 12
SYMBOL pmos4 -272 432 M180
WINDOW 3 57 68 Left 2
SYMATTR Value pmod
SYMATTR InstName M1
SYMATTR Value2 l=100u w=100u
SYMBOL nmos4 -272 448 R0
WINDOW 3 56 60 Left 2
SYMATTR Value nmod
SYMATTR InstName M2
SYMATTR Value2 l=100u w=2500u
SYMBOL res -80 416 R90
WINDOW 0 0 56 VBottom 2
WINDOW 3 32 56 VTop 2
SYMATTR InstName R2
SYMATTR Value 1
SYMBOL mesfet 128 -80 R0
SYMATTR InstName X3
SYMATTR Value TPH3208
SYMATTR Prefix X
SYMBOL FerriteBead 32 0 R90
WINDOW 0 -16 0 VBottom 2
WINDOW 3 47 -17 VBottom 2
SYMATTR InstName L3
SYMATTR Value MMZ0603Y121C_s
SYMATTR Prefix X
SYMBOL FerriteBead -32 432 R90
WINDOW 0 -16 0 VBottom 2
WINDOW 3 47 -17 VBottom 2
SYMATTR InstName L4
SYMATTR Value MMZ0603Y121C_s
SYMATTR Prefix X
SYMBOL mesfet 128 352 R0
SYMATTR InstName X4
SYMATTR Value TPH3208
SYMATTR Prefix X
TEXT 880 -120 Left 2 !.tran 10.2us uic
TEXT 880 136 Left 2 !.model nmod nmos(vto=3 kp=0.015)\n.model pmod pmos(vto=-2 kp=0.010)
TEXT 880 240 Left 2 !.subckt  TPH3208 301 302 303\n* GROUP A: 301=D1, 302=G1, 303=S1\n*\n* NODE 000 - 099: RESERVED FOR CAP EMULATION\n* NODE 100 - 199: HEMT_A AND NMOS_A\n* NODE 300 - 399: PIN AND CONNECTION\n*\n* Part A: 101=drain A, 152=gate A, 199=source A  \n* HEMT_A: 101=drainHA, 102=gateHA, 103=sourceHA\n* NMOS_A: 151=drainMA, 152=gateMA, 153=sourceMA\n*\n*   ver 2.0, SEP 07, 2016, By Feng Qi @ Transphorm\n \n************************\n************************\n***   Part A Begin   ***\n************************\n* 101=drain A, 152=gate A, 199=source A\n \n**************************\n**  Connection A Begin  **\n \nLi1A 103 151 0.26nH\nLi2A 102 198 0.20nH \nRi2A 198 199 0.12   \nLi3A 153 197 0.33nH \nRi3A 197 199 0.01  \n \n**  Connection A End  **\n************************\n \n \n******************* \n**  HEMT_A Begin **\n* xxxx\n* 101=drainHA, 102=gateHA, 103=sourceHA\n \n \n** HEMT_A Body  **\n \nJ1A 104 102 103 MJ1A 1.6\n.model MJ1A NJF vto -22 beta 1.09 lambda 0.005 rs 0.01\n+ cgs 30PF cgd 3.5PF is=1f m=0.3\n \nJ2A 105 102 104 MJ2A 1.6\n.model MJ2A NJF vto -75 beta 1.09 lambda 0.005 \n+ cgs 20PF cgd 35PF is=1f m=0.35\n \nJ3A 101 102 105 MJ3A 1.6\n.model MJ3A NJF vto -210 beta 1.09 lambda 0.005 rd 0.1 \n+ cgs 10PF cgd 350PF is=1f m=0.4\n \n \n**  HEMT_A Leakage Compensation  **\n \nDL1A 106 101 MDLA 1.6\nDL2A 106 103 MDLA 1.6\n.model MDLA D is=0.05uA cjo=0\n \n \n**  HEMT_A Cap Compensation  **\n \nCJA 101 103 10pF\n \n \n**  HEMT_A End  **\n******************\n \n \n********************\n**  NMOS_A Begin  **\n* xxxx\n* 151=drainMA, 152=gateMA, 153=sourceMA\n \nMA 159 157 158 158 MMA L=100u W=100u\n.MODEL MMA NMOS LEVEL=1 IS=1e-32\n+VTO=2.25383 LAMBDA=0 KP=14\n+CGSO=6.85477e-06 CGDO=1e-11\n \n \nDM1A 153 151 MDMA\n.MODEL MDMA D IS=2.43881e-12 RS=0.00352044 N=1.06987 BV=30\n+IBV=0.00025 EG=1 XTI=1 TT=4e-09\n+CJO=2.9117e-10 VJ=1.47202 M=0.516058 FC=0.5\n \nRMA  153 151 1e+07\nRMDA 159 151 0.0001\nRMGA 152 157 6\nRMSA 158 153 0.0011421\n \n \nRMLA 155 160 1\nFM2A 157 159 VM2A -1\nVM2A 154 0 0\nEMA  160 0 159 157 1\nCMA  161 160 3.93658e-10\nFM1A 157 159 VM1A -1\nVM1A 161 156 0\nRMCA 156 160 1\n \nDM2A 154 155 MDM1A\n.MODEL MDM1A D IS=1e-32 N=50\n+CJO=1.24965e-10 VJ=4.30659 M=0.3 FC=1e-08\n \nDM3A 0 155 MDM2A\n.MODEL MDM2A D IS=1e-10 N=0.408373 RS=3e-06\n \nDM4A 0 156 MDM3A\n.MODEL MDM3A D IS=1e-10 N=0.408373\n \n**  NMOS_A End  **\n******************\n \n**  PartA Cap Compensation  **\n \nCGDA 321 101 5.5pF\n \n*********************\n***   PartA End   ***\n*********************\n*********************\n \n \n \n********************************\n********************************\n***   Pin Connection Begin   ***\n********************************\n \n \n********************\n**  301=D1 Begin  **\n* from 101=drainA to 301=D1\n  \nL315 301 311 1.68n\nR315 301 311 40 \nR311 311 101 54m \nL311 311 312 0.0129n\nR312 312 101 27m \nL312 312 313 0.04322n \nR313 313 101 13.5m \nL314 313 314 0.1448n\nR314 314 101 6.75m\n \n**  301=D1 End  **\n******************\n \n \n********************\n**  302=G1 Begin  **\n* from 152=GateA to 302=G1\n \nL325 302 321 2.86n\nR325 302 321 40 \nR321 321 152 1145m \nL321 321 322 0.053n\nR322 322 152 408.93m \nL322 322 323 0.06784n \nR323 323 152 146m \nL324 323 324 0.08684n\nR324 324 152 52.16m\n \n**  302=G1 End  **\n******************\n \n \n********************\n**  303=S1 Begin  **\n* from 199=sourceA to 303=S1\n \nL335 303 331 0.65n\nR335 303 331 2 \nR331 331 199 40.5m \nL331 331 332 0.0097n\nR332 332 199 20.25m \nL332 332 333 0.0398n \nR333 333 199 10.125m \nL334 333 334 0.163n\nR334 334 199 5.0625m\n \n**  303=S1 End  **\n******************\n \n \n \n******************************\n***   Pin Connection End   ***\n******************************\n******************************\n \n \n.ends  TPH3208
TEXT 888 -72 Left 2 !.SUBCKT MMZ0603Y121C_s 1 2\nC1 1 11 2.0E-13\nL1 1 11 1.6E-07\nR1 1 11 1.9E+02\nR2 2 11 3.1E-01\n.ENDS MMZ0603Y121C_s
